Version 4
SHEET 1 880 680
WIRE -160 32 -240 32
WIRE -32 32 -96 32
WIRE -240 64 -240 32
WIRE -32 64 -32 32
WIRE -240 176 -240 144
WIRE -32 176 -32 144
FLAG -32 176 0
FLAG -240 176 0
FLAG -240 32 Vsin
FLAG -32 32 Vrec
SYMBOL res -48 48 R0
SYMATTR InstName R1
SYMATTR Value 3.3K
SYMBOL voltage -240 48 R0
WINDOW 123 0 0 Left 0
WINDOW 39 0 0 Left 0
SYMATTR InstName V1
SYMATTR Value SINE(0 5 50)
SYMBOL diode -160 48 R270
WINDOW 0 32 32 VTop 2
WINDOW 3 0 32 VBottom 2
SYMATTR InstName D1
SYMATTR Value 1N4148
TEXT -272 200 Left 2 !.tran 0 50m 0m
